!!>>>>>>>>>>>>>>>>>>>>>>>>>>>>>>>>>>>>>>>>>>>>>>>>>>>>>>>>>>>>>>>>>>>>>>
!! NEMO/OCE :   Reference namelist_ref                                !!
!!>>>>>>>>>>>>>>>>>>>>>>>>>>>>>>>>>>>>>>>>>>>>>>>>>>>>>>>>>>>>>>>>>>>>>>
!! NEMO/OCE  :  1 - Domain & run manager (namrun, namcfg, namdom, namzgr, namzgr_sco )
!!              2 - diagnostics      (namnc4)
!!              3 - miscellaneous    (nammpp, namctl)
!!>>>>>>>>>>>>>>>>>>>>>>>>>>>>>>>>>>>>>>>>>>>>>>>>>>>>>>>>>>>>>>>>>>>>>>
!-----------------------------------------------------------------------
&namrun        !   parameters of the run
!-----------------------------------------------------------------------
   cn_exp      =  "eORCA36.L121-AA2023"  !  experience name
   nn_it000    =       1   !  first time step
   nn_itend    =    5840   !  last  time step (std 5840)
   nn_date0    =  010101   !  date at nit_0000 (format yyyymmdd) used if ln_rstart=F or (ln_rstart=T and nn_rstctl=0 or 1)
   nn_time0    =       0   !  initial time of day in hhmm
   nn_leapy    =       0   !  Leap year calendar (1) or not (0)
   ln_mskland  = .false.   !  mask land points in NetCDF outputs (costly: + ~15%)
   ln_clobber  = .true.    !  clobber (overwrite) an existing file
   nn_chunksz  =       0   !  chunksize (bytes) for NetCDF file (works only with iom_nf90 routines)
   ln_cfmeta   = .false.   !  output additional data to netCDF files required for compliance with the CF metadata standard
   ln_iscpl    = .false.   !  cavity evolution forcing or coupling to ice sheet model
/
!-----------------------------------------------------------------------
&namdom        !   space and time domain (bathymetry, mesh, timestep)
!-----------------------------------------------------------------------
   ln_read_cfg = .false.   !  Read from a domain_cfg file
   nn_bathy    =    1      !  compute analyticaly (=0) or read (=1) the bathymetry file
                           !  or compute (2) from external bathymetry
   nn_interp   =    1                          ! type of interpolation (nn_bathy =2)
   cn_domcfg   = ' '       ! Name of the domain_cfg input file
   cn_fcoord   =  'eORCA_R36_coordinates_v3.3_nemo4.0.x.noz.nc'        ! external coordinates file (jphgr_msh = 0)
   cn_topo     =  'eORCA_R36_Bathymetry_v4.0.3_40km.nc'        ! external topo file (nn_bathy =1/2)
   cn_topolvl  =  'eORCA_R36_Bathymetry_v4.0.3_40km.nc'     ! external topo file (nn_bathy =1)
   cn_fisfd    =  'eORCA_R36_Bathymetry_v4.0.3_40km.nc'         ! external isf draft (nn_bathy =1 and ln_isfcav = .true.)
   cn_bath     =  'Bathymetry'             ! topo name in file  (nn_bathy =1/2)
   cn_bathlvl  =  'Bathymetry'                ! lvl name in file   (nn_bathy =1)
   cn_visfd    =  'icedraft'                  ! isf draft variable (nn_bathy =1 and ln_isfcav = .true.)
   cn_lon      =  'nav_lon'                    ! lon  name in file  (nn_bathy =2)
   cn_lat      =  'nav_lat'                    ! lat  name in file  (nn_bathy =2)
   rn_bathy    =    0.     !  value of the bathymetry. if (=0) bottom flat at jpkm1
   nn_msh      =    1      !  create (=1) a mesh file or not (=0)
   rn_hmin     =   10.     !  min depth of the ocean (>0) or min number of ocean level (<0)
   rn_e3zps_min=   25.     !  partial step thickness is set larger than the minimum of
   rn_e3zps_rat=    0.2    !  rn_e3zps_min and rn_e3zps_rat*e3t, with 0<rn_e3zps_rat<1
                           !
   rn_rdt      = 5760.     !  time step for the dynamics (and tracer if nn_acc=0)
   rn_atfp     =    0.1    !  asselin time filter parameter
   ln_crs      = .false.      !  Logical switch for coarsening module
   jphgr_msh   =       0               !  type of horizontal mesh
                                       !  = 0 curvilinear coordinate on the sphere read in coordinate.nc
                                       !  = 1 geographical mesh on the sphere with regular grid-spacing
                                       !  = 2 f-plane with regular grid-spacing
                                       !  = 3 beta-plane with regular grid-spacing
                                       !  = 4 Mercator grid with T/U point at the equator
                                       !
! From discussion with N.J. (resolution about 10-20 m in the ISF depth range):
 ppsur  = -9010.587848403375 
 ppa0   =   106.31862889828116 
 ppa1   =     7.952358497085131 
 ppa2   =    97.73124662753601 

 ppkth  =    22.180677730800767 
 ppacr  =    11.02538019814476 

 ppkth2 =   100.00000000000
 ppacr2 =    13.00000000000

 ppdzmin     =  999999.0             !  Minimum vertical spacing
 pphmax      =  999999.0             !  Maximum depth
 ldbletanh   =    .TRUE.             !  Use/do not use double tanf function for vertical coordinates
/
!-----------------------------------------------------------------------
&namcfg        !   parameters of the configuration
!-----------------------------------------------------------------------
   !
   ln_e3_dep   = .true.    ! =T : e3=dk[depth] in discret sens.
   !                       !      ===>>> will become the only possibility in v4.0
   !                       ! =F : e3 analytical derivative of depth function
   !                       !      only there for backward compatibility test with v3.6
   !                       !
   cp_cfg      =  "eorca"  !  name of the configuration
   jp_cfg      =       36   !  resolution of the configuration
   jpidta      =   12962   !  1st lateral dimension ( >= jpi )
   jpjdta      =   10843   !  2nd    "         "    ( >= jpj )
   jpkdta      =     121   !  number of levels      ( >= jpk )
   jpiglo      =   12962   !  1st dimension of global domain --> i =jpidta
   jpjglo      =   10843   !  2nd    -                  -    --> j  =jpjdta
   jperio      =       4   !  lateral cond. type (between 0 and 6)
   ln_domclo   = .false.   ! computation of closed sea masks (see namclo)
/
!-----------------------------------------------------------------------
&namzgr        !   vertical coordinate                                  (default: NO selection)
!-----------------------------------------------------------------------
   ln_zco      = .false.   !  z-coordinate - full    steps
   ln_zps      = .true.    !  z-coordinate - partial steps
   ln_sco      = .false.   !  s- or hybrid z-s-coordinate
   ln_isfcav   = .true.    !  ice shelf cavity             (T: see namzgr_isf)
/
!-----------------------------------------------------------------------
&namzgr_isf    !   isf cavity geometry definition                       (default: OFF)
!-----------------------------------------------------------------------
   rn_isfdep_min    = 10.         ! minimum isf draft tickness (if lower, isf draft set to this value)
   rn_glhw_min      = 1.e-3       ! minimum water column thickness to define the grounding line
   rn_isfhw_min     = 10          ! minimum water column thickness in the cavity once the grounding line defined.
   ln_isfchannel    = .false.     ! remove channel (based on 2d mask build from isfdraft-bathy)
   ln_isfconnect    = .true.      ! force connection under the ice shelf (based on 2d mask build from isfdraft-bathy)
      nn_kisfmax       =    3        ! limiter in level on the previous condition. (if change larger than this number, get back to value before we enforce the connection)
      rn_zisfmax       =   50.       ! limiter in m     on the previous condition. (if change larger than this number, get back to value before we enforce the connection)
   ln_isfcheminey   = .true.      ! close cheminey
   ln_isfsubgl      = .true.      ! remove subglacial lake created by the remapping process
      rn_isfsubgllon   =    0.0      !  longitude of the seed to determine the open ocean
      rn_isfsubgllat   =    0.0      !  latitude  of the seed to determine the open ocean
/
!-----------------------------------------------------------------------
&namzgr_sco    !   s-coordinate or hybrid z-s-coordinate                (default: OFF)
!-----------------------------------------------------------------------
   ln_s_sh94   = .false.    !  Song & Haidvogel 1994 hybrid S-sigma   (T)|
   ln_s_sf12   = .false.   !  Siddorn & Furner 2012 hybrid S-z-sigma (T)| if both are false the NEMO tanh stretching is applied
   ln_sigcrit  = .false.   !  use sigma coordinates below critical depth (T) or Z coordinates (F) for Siddorn & Furner stretch
                           !  stretching coefficients for all functions
   rn_sbot_min =   10.0    !  minimum depth of s-bottom surface (>0) (m)
   rn_sbot_max = 7000.0    !  maximum depth of s-bottom surface (= ocean depth) (>0) (m)
   rn_hc       =  150.0    !  critical depth for transition to stretched coordinates
                        !!!!!!!  Envelop bathymetry
   rn_rmax     =    0.3    !  maximum cut-off r-value allowed (0<r_max<1)
                        !!!!!!!  SH94 stretching coefficients  (ln_s_sh94 = .true.)
   rn_theta    =    6.0    !  surface control parameter (0<=theta<=20)
   rn_bb       =    0.8    !  stretching with SH94 s-sigma
                        !!!!!!!  SF12 stretching coefficient  (ln_s_sf12 = .true.)
   rn_alpha    =    4.4    !  stretching with SF12 s-sigma
   rn_efold    =    0.0    !  efold length scale for transition to stretched coord
   rn_zs       =    1.0    !  depth of surface grid box
                           !  bottom cell depth (Zb) is a linear function of water depth Zb = H*a + b
   rn_zb_a     =    0.024  !  bathymetry scaling factor for calculating Zb
   rn_zb_b     =   -0.2    !  offset for calculating Zb
                        !!!!!!!! Other stretching (not SH94 or SF12) [also uses rn_theta above]
   rn_thetb    =    1.0    !  bottom control parameter  (0<=thetb<= 1)
/
!-----------------------------------------------------------------------
&namclo ! (closed sea : need ln_domclo = .true. in namcfg)              (default: OFF)
!-----------------------------------------------------------------------
   rn_lon_opnsea =  0.0    ! longitude seed of open ocean
   rn_lat_opnsea =  0.0    ! latitude  seed of open ocean
   nn_closea = 8           ! number of closed seas ( = 0; only the open_sea mask will be computed)
   !
   !                name   ! lon_src ! lat_src ! lon_trg ! lat_trg ! river mouth area   ! correction scheme ! radius trg   ! id trg
   !                       ! (degree)! (degree)! (degree)! (degree)! local/coast/global ! (glo/rnf/emp)     !     (m)      !
   ! North American lakes
   sn_lake(1) = 'superior' ,  -86.57 ,  47.30  , -66.49  , 50.45   , 'local'            , 'rnf'             ,   550000.0   , 2    
   sn_lake(2) = 'michigan' ,  -87.06 ,  42.74  , -66.49  , 50.45   , 'local'            , 'rnf'             ,   550000.0   , 2    
   sn_lake(3) = 'huron'    ,  -82.51 ,  44.74  , -66.49  , 50.45   , 'local'            , 'rnf'             ,   550000.0   , 2    
   sn_lake(4) = 'erie'     ,  -81.13 ,  42.25  , -66.49  , 50.45   , 'local'            , 'rnf'             ,   550000.0   , 2    
   sn_lake(5) = 'ontario'  ,  -77.72 ,  43.62  , -66.49  , 50.45   , 'local'            , 'rnf'             ,   550000.0   , 2    
   ! African Lake
   sn_lake(6) = 'victoria' ,   32.93 ,  -1.08  ,  30.44  , 31.37   , 'coast'            , 'emp'             ,   100000.0   , 3    
   ! Asian Lakes
   sn_lake(7) = 'caspian'  ,   50.0  ,  44.0   ,   0.0   ,  0.0    , 'global'           , 'glo'             ,        0.0   , 1     
   sn_lake(8) = 'aral'     ,   60.0  ,  45.0   ,   0.0   ,  0.0    , 'global'           , 'glo'             ,        0.0   , 1    
/
!-----------------------------------------------------------------------
&namlbc        !   lateral momentum boundary condition                  (default: NO selection)
!-----------------------------------------------------------------------
   !                       !  free slip  !   partial slip  !   no slip   ! strong slip
   rn_shlat    =  0        !  shlat = 0  !  0 < shlat < 2  !  shlat = 2  !  2 < shlat
   ln_vorlat   = .false.   !  consistency of vorticity boundary condition with analytical Eqs.
/
!-----------------------------------------------------------------------
&namagrif      !  AGRIF zoom                                            ("key_agrif")
!-----------------------------------------------------------------------
   ln_spc_dyn    = .true.  !  use 0 as special value for dynamics
   rn_sponge_tra = 2880.   !  coefficient for tracer   sponge layer [m2/s]
   rn_sponge_dyn = 2880.   !  coefficient for dynamics sponge layer [m2/s]
   ln_chk_bathy  = .FALSE. !
   npt_connect   = 2
   npt_copy      = 2
/
!-----------------------------------------------------------------------
&nammpp        !   Massively Parallel Processing                        ("key_mpp_mpi")
!-----------------------------------------------------------------------
   cn_mpi_send =  'I'      !  mpi send/recieve type   ='S', 'B', or 'I' for standard send,
   !                       !  buffer blocking send or immediate non-blocking sends, resp.
   nn_buffer   =   0       !  size in bytes of exported buffer ('B' case), 0 no exportation
   ln_nnogather =  .true.  !  activate code to avoid mpi_allgather use at the northfold
   jpni        =   2       !  jpni   number of processors following i (set automatically if < 1)
   jpnj        =   400     !  jpnj   number of processors following j (set automatically if < 1)
/
